data/crac/crac-creation-util/src/test/resources/TestCase_severalVoltageLevels_Xnodes_8characters.uct
##C 2007.05.01
##N
##ZBE
BBE1AA11 BE1          0 2 400.00 2000.00 0.00000 -1500.0 0.00000 9000.00 -9000.0 9000.00 -9000.0
BBE2AA11 BE2          0 2 400.00 1000.00 0.00000 -3000.0 0.00000 9000.00 -9000.0 9000.00 -9000.0
BBE3AA12 BE3          0 2 400.00 1500.00 0.00000 -2500.0 0.00000 9000.00 -9000.0 9000.00 -9000.0
BBE1AA21 BE1          0 2 225.00 1000.00 0.00000 -500.00 0.00000 9000.00 -9000.0 9000.00 -9000.0
BBE2AA21 BE3          0 2 225.00 500.000 0.00000 -500.00 0.00000 9000.00 -9000.0 9000.00 -9000.0
##ZDE
DDE1AA11 DE1          0 2 400.00 3500.00 0.00000 -2500.0 0.00000 9000.00 -9000.0 9000.00 -9000.0
DDE1AA12 DE1          0 2 400.00 3500.00 0.00000 -2500.0 0.00000 9000.00 -9000.0 9000.00 -9000.0
DDE2AA11 DE2          0 2 400.00 3000.00 0.00000 -2000.0 0.00000 9000.00 -9000.0 9000.00 -9000.0
DDE3AA11 DE3          0 2 400.00 2000.00 0.00000 -1500.0 0.00000 9000.00 -9000.0 9000.00 -9000.0
##ZFR
FFR1AA11 FR1          0 2 400.00 1000.00 0.00000 -2000.0 0.00000 9000.00 -9000.0 9000.00 -9000.0
FFR2AA11 FR2          0 2 400.00 3500.00 0.00000 -2500.0 0.00000 9000.00 -9000.0 9000.00 -9000.0
FFR3AA11 FR3          0 2 400.00 1500.00 0.00000 -3000.0 0.00000 9000.00 -9000.0 9000.00 -9000.0
FFR1AA24 FR1          0 2 225.00 1000.00 0.00000 -500.00 0.00000 9000.00 -9000.0 9000.00 -9000.0
FFR3AA21 FR3          0 2 225.00 1500.00 0.00000 -500.00 0.00000 9000.00 -9000.0 9000.00 -9000.0
##ZNL
NNL1AA11 NL1          0 2 400.00 1000.00 0.00000 -1500.0 0.00000 9000.00 -9000.0 9000.00 -9000.0
NNL2AA13 NL2          0 2 400.00 1000.00 0.00000 -1500.0 0.00000 9000.00 -9000.0 9000.00 -9000.0
NNL3AA11 NL3          0 2 400.00 2500.00 0.00000 -2000.0 0.00000 9000.00 -9000.0 9000.00 -9000.0
##ZXX
XFRDE111              1 0        0.00000 0.00000 0.00000 0.00000
XDENL111              1 0        0.00000 0.00000 0.00000 0.00000
XNLBE111              1 0        0.00000 0.00000 0.00000 0.00000
XBEFR112              1 0        0.00000 0.00000 0.00000 0.00000
XBEFR221              1 0        0.00000 0.00000 0.00000 0.00000
XBEFR321              1 0        0.00000 0.00000 0.00000 0.00000
XBE2AL11              1 0        123.000 0.00000 0.00000 0.00000
XDE2AL11              1 0        -123.00 0.00000 0.00000 0.00000
##L
BBE1AA11 BBE2AA11 1 0 0.0000 10.000 0.000000   5000
BBE1AA11 BBE3AA12 1 0 0.0000 10.000 0.000000   5000 BR BE1BE3
BBE1AA21 BBE2AA21 1 0 0.0000 10.000 0.000000   1000 BR BE1BE2
FFR1AA11 FFR2AA11 1 0 0.0000 10.000 0.000000   5000 BR FR1FR2
FFR1AA11 FFR3AA11 1 0 0.0000 10.000 0.000000   5000
FFR1AA11 FFR3AA11 2 0 0.0000 10.000 0.000000   5000 BR FR1FR3
FFR2AA11 FFR3AA11 1 0 0.0000 10.000 0.000000   5000
FFR1AA24 FFR3AA21 1 0 0.0000 10.000 0.000000   1000
DDE1AA11 DDE1AA12 1 0 0.0000 10.000 0.000000   5000
DDE1AA11 DDE2AA11 1 0 0.0000 10.000 0.000000   5000 E_NAME_1
DDE1AA12 DDE2AA11 1 0 0.0000 10.000 0.000000   5000 E_NAME_1
DDE1AA12 DDE2AA11 2 0 0.0000 10.000 0.000000   5000 E_NAME_2
DDE1AA12 DDE3AA11 1 0 0.0000 10.000 0.000000   5000
DDE2AA11 DDE3AA11 1 0 0.0000 10.000 0.000000   5000
NNL1AA11 NNL2AA13 1 0 0.0000 10.000 0.000000   5000
NNL1AA11 NNL3AA11 1 0 0.0000 10.000 0.000000   5000
NNL2AA13 NNL3AA11 1 0 0.0000 10.000 0.000000   5000
XFRDE111 DDE3AA11 1 0 0.0000 10.000 0.000000   5000 TL DE3X
XFRDE111 FFR2AA11 1 0 0.0000 10.000 0.000000   5000 TL FR2X
DDE2AA11 XDENL111 1 0 0.0000 10.000 0.000000   5000 TL DE2X
NNL3AA11 XDENL111 1 0 0.0000 10.000 0.000000   5000 TL NL3X
NNL2AA13 XNLBE111 1 0 0.0000 10.000 0.000000   5000 TL NL2X
XNLBE111 BBE3AA12 1 0 0.0000 10.000 0.000000   5000 TL BE3X
FFR3AA11 XBEFR112 1 0 0.0000 10.000 0.000000   5000
XBEFR112 BBE2AA11 1 0 0.0000 10.000 0.000000   5000 TL BE2X
XBEFR221 BBE2AA21 1 0 0.0000 10.000 0.000000   1000
XBEFR221 FFR3AA21 1 0 0.0000 10.000 0.000000   1000
BBE1AA21 XBEFR321 1 0 0.0000 10.000 0.000000   1000 TL BE1X
FFR1AA24 XBEFR321 1 0 0.0000 10.000 0.000000   1000
BBE2AA11 XBE2AL11 1 0 0.0000 10.000 0.000000   1000
XDE2AL11 DDE2AA11 1 0 0.0000 10.000 0.000000   1000 DL AL
##T
BBE2AA11 BBE3AA12 1 0 400.0 400.0 1000. 0.0000 10.000 0.000000 0.0	    5000  PST BE
BBE1AA11 BBE1AA21 1 0 400.0 225.0 300.0 3.5790 141.29 0.000000 0.0000   1000  TR BE1
BBE2AA21 BBE2AA11 2 0 225.0 400.0 400.0 0.2070 15.900 -5.49000 2.4000   1200
FFR3AA11 FFR3AA21 1 0 400.0 225.0 100.0 0.5600 42.336 -3.33750 0.8562   1000
FFR1AA24 FFR1AA11 5 0 225.0 400.1 344.5 0.2033 13.716 0.000000 0.0000   1500  TR FR1
##R
BBE2AA11 BBE3AA12 1                    -0.68 90.00 16 0         SYMM
